172
New.xyz
C         64.66557        2.32041        9.25649
C         64.42038        1.42224        8.07248
O         63.68740        1.80361        7.17315
H         65.13050        3.27035        8.91777
H         63.70951        2.54268        9.77269
H         65.35419        1.84752        9.99081
N         65.03096        0.20973        8.00474
C         64.91815       -0.71425        6.87951
C         63.50067       -1.24302        6.68731
O         62.92355       -1.76175        7.63238
C         65.88522       -1.88904        7.11211
C         65.83314       -2.88916        6.00236
O         65.52330       -4.16996        6.27776
O         66.06029       -2.54701        4.85308
H         65.65116       -0.05317        8.78726
H         65.25466       -0.19772        5.95514
H         65.63748       -2.39887        8.06859
H         66.92208       -1.49406        7.18222
N         62.91895       -1.20807        5.44937
C         61.59748       -1.75299        5.14559
C         61.62859       -2.88579        4.11067
O         60.56592       -3.42374        3.83012
C         60.71547       -0.61750        4.61001
H         63.44543       -0.78212        4.67637
H         61.12890       -2.15919        6.06716
H         61.14457       -0.20777        3.66807
H         59.68724       -0.98135        4.39802
H         60.65019        0.20360        5.35413
N         62.77008       -3.27401        3.46440
C         62.75645       -4.17330        2.30218
C         64.01645       -5.05570        2.18198
O         64.10389       -5.81341        1.22582
C         62.49290       -3.31547        1.04539
C         63.45727       -2.17767        0.99126
O         64.75700       -2.44309        0.86687
O         63.07719       -1.02507        1.11981
H         63.63084       -2.73990        3.63928
H         61.90642       -4.88743        2.37250
H         61.46646       -2.89482        1.11935
H         62.54348       -3.92563        0.11717
N         64.98187       -5.07952        3.14553
C         66.09136       -6.02673        3.18688
C         67.24489       -5.81048        2.21759
O         68.17170       -6.60620        2.28731
H         64.85361       -4.49973        3.97510
H         65.68913       -7.05600        3.06803
H         66.54552       -5.97151        4.20153
N         67.30758       -4.78843        1.31357
C         68.45890       -4.60922        0.41541
C         69.76841       -4.19162        1.11845
O         70.76126       -4.03786        0.41944
C         68.13157       -3.66990       -0.77488
C         67.59934       -2.28301       -0.43069
N         67.53019       -1.42473       -1.60601
O         68.28367       -1.65212        0.59917
H         66.50613       -4.15206        1.23390
H         68.66765       -5.58698       -0.07443
H         67.34586       -4.15101       -1.39785
H         69.03697       -3.56980       -1.41131
H         66.78925       -1.80225       -2.23863
H         67.21569       -0.47567       -1.30623
N         69.88342       -4.04836        2.47377
C         71.15198       -3.77562        3.15105
C         71.64595       -2.33424        3.07768
O         72.68372       -2.05648        3.65849
H         69.07161       -4.23924        3.07245
H         71.93130       -4.47273        2.76960
H         71.02039       -3.99533        4.23206
N         70.96244       -1.36807        2.40519
C         71.35736        0.04075        2.31864
C         70.21269        0.94251        2.78872
O         69.17636        0.43024        3.18145
C         71.77537        0.36606        0.86297
C         73.04464       -0.40259        0.45858
O         70.72172        0.13026       -0.04038
H         70.11602       -1.64277        1.91444
H         72.23093        0.24945        2.97381
H         72.04597        1.43907        0.78800
H         70.68758       -0.84370       -0.23102
H         73.34525       -0.11943       -0.57164
H         73.87702       -0.14711        1.14966
H         72.87977       -1.50022        0.49367
N         70.32741        2.30830        2.75767
C         69.26060        3.20675        3.19991
C         68.67182        3.90341        1.98420
O         69.35986        4.68340        1.34158
C         69.79615        4.24260        4.23842
C         70.43656        3.52617        5.45400
C         68.67159        5.19787        4.69161
C         71.06933        4.48732        6.46576
H         71.18819        2.73359        2.38696
H         68.45202        2.62315        3.68903
H         70.58469        4.85101        3.74107
H         71.24890        2.86030        5.09240
H         69.67796        2.89996        5.97199
H         67.88028        4.63876        5.23123
H         69.05926        5.99880        5.35115
H         68.22090        5.72056        3.82701
H         71.83074        5.12542        5.96841
H         70.30767        5.13225        6.94867
H         71.56450        3.90495        7.27022
N         67.38730        3.64306        1.60530
C         66.73856        4.29465        0.47059
C         66.34413        5.71938        0.83465
O         66.56806        6.14473        1.95968
C         65.47595        3.50650        0.04144
C         65.80140        2.12059       -0.42935
O         66.38848        1.24902        0.40175
O         65.52638        1.77406       -1.56732
H         66.85793        2.93818        2.13548
H         67.43087        4.30240       -0.40070
H         64.98678        4.01791       -0.81085
H         64.75429        3.44925        0.88460
N         65.72977        6.51675       -0.08123
C         65.24379        7.85841        0.21420
C         64.14288        7.85700        1.28460
O         64.29532        8.61542        2.22812
C         64.79593        8.56152       -1.08240
C         64.41926       10.00970       -0.86396
C         65.34598       10.92214       -0.32152
C         63.14016       10.46766       -1.22019
C         64.99292       12.26110       -0.13334
C         62.79461       11.81028       -1.03729
C         63.71897       12.70551       -0.49269
H         65.60577        6.15330       -1.03916
H         66.10599        8.44568        0.60019
H         63.95998        8.00167       -1.54793
H         65.64557        8.54297       -1.79962
H         66.34240       10.60446       -0.04326
H         62.41254        9.78861       -1.64629
H         65.70942       12.95507        0.28772
H         61.80973       12.15733       -1.32022
H         63.44950       13.74411       -0.35172
N         63.02600        7.05149        1.25526
C         62.00835        7.04556        2.30579
C         62.47594        6.39620        3.60996
O         61.66932        6.32870        4.52873
C         60.84828        6.27144        1.66800
C         61.58177        5.25774        0.82447
C         62.68093        6.11676        0.20401
H         61.65237        8.07419        2.53411
H         60.09622        5.86290        2.37749
H         60.32052        6.94968        0.95872
H         62.05039        4.52419        1.52065
H         60.96349        4.69990        0.09001
H         63.49925        5.44558       -0.08075
H         62.31142        6.68541       -0.67469
N         63.74915        5.93618        3.78903
C         64.24711        5.38269        5.04464
C         65.25328        6.32459        5.70203
O         65.67659        6.03388        6.81152
C         64.93542        4.02711        4.78678
C         64.04059        3.01309        4.06410
C         64.77796        1.73971        3.74629
O         66.04742        1.54155        4.15563
O         64.22515        0.87935        3.08369
H         64.41769        6.00058        3.01690
H         63.40900        5.24579        5.76339
H         65.28448        3.59641        5.75178
H         65.82227        4.21190        4.14181
H         63.70667        3.45120        3.10171
H         63.14520        2.78004        4.67877
N         65.68897        7.46194        5.08198
C         66.63402        8.39230        5.66029
H         67.53421        8.44624        5.01196
H         66.16823        9.39978        5.70323
H         66.94656        8.10136        6.68324
H         65.35917        7.69755        4.14360
Ca        66.37863       -1.11592        1.61354
O         68.70967       -2.02574        4.44549
H         68.74545       -2.84197        5.00374
H         68.63938       -1.28410        5.09606
